 ****** HSPICE -- A-2008.03 32-BIT (Feb 26 2008) winnt ******                   
  Copyright (C) 2008 Synopsys, Inc. All Rights Reserved.                        
  Unpublished-rights reserved under US copyright laws.
  This program is protected by law and is subject to the 
  terms and conditions of the license agreement found in:
    D:\synopsys\Hspice_A-2008.03\license.warn
  Use of this program is your acceptance to be bound by this 
  license agreement. HSPICE is the trademark of Synopsys, Inc.
  Input File: c:\users\shayan\desktop\uni stuff\8\digital elec\vol project\code.
 Init: read install configuration file: D:\synopsys\Hspice_A-2008.03\meta.cfg
 Init: hspice initialization file: D:\synopsys\Hspice_A-2008.03\hspice.ini




 .include "c:\users\shayan\desktop\uni stuff\8\digital elec\vol project\45nm.pm"
 * beta version released on 2/22/06

 * ptm 45nm nmos 
  
 .model  nmos  nmos  level = 54

 +version = 4.0          binunit = 1            paramchk= 1            mobmod  = 0          
 +capmod  = 2            igcmod  = 1            igbmod  = 1            geomod  = 1          
 +diomod  = 1            rdsmod  = 0            rbodymod= 1            rgatemod= 1          
 +permod  = 1            acnqsmod= 0            trnqsmod= 0          

 +tnom    = 27           toxe    = 1.75e-9      toxp    = 1.1e-9       toxm    = 1.75e-9   
 +dtox    = 0.65e-9      epsrox  = 3.9          wint    = 5e-009       lint    = 3.75e-009   
 +ll      = 0            wl      = 0            lln     = 1            wln     = 1          
 +lw      = 0            ww      = 0            lwn     = 1            wwn     = 1          
 +lwl     = 0            wwl     = 0            xpart   = 0            toxref  = 1.75e-9   
 +xl      = -20e-9
 +vth0    = 0.466        k1      = 0.4          k2      = 0.0          k3      = 0          
 +k3b     = 0            w0      = 2.5e-006     dvt0    = 1            dvt1    = 2       
 +dvt2    = 0            dvt0w   = 0            dvt1w   = 0            dvt2w   = 0          
 +dsub    = 0.1          minv    = 0.05         voffl   = 0            dvtp0   = 1.0e-010     
 +dvtp1   = 0.1          lpe0    = 0            lpeb    = 0            xj      = 1.4e-008   
 +ngate   = 2e+020       ndep    = 3.24e+018    nsd     = 2e+020       phin    = 0          
 +cdsc    = 0.000        cdscb   = 0            cdscd   = 0            cit     = 0          
 +voff    = -0.13        nfactor = 2.1          eta0    = 0.0049       etab    = 0          
 +vfb     = -0.55        u0      = 0.04398      ua      = 6e-010       ub      = 1.2e-018     
 +uc      = 0            vsat    = 147390       a0      = 1.0          ags     = 0     
 +a1      = 0            a2      = 1.0          b0      = 0            b1      = 0          
 +keta    = 0.04         dwg     = 0            dwb     = 0            pclm    = 0.02       
 +pdiblc1 = 0.001        pdiblc2 = 0.001        pdiblcb = -0.005       drout   = 0.5        
 +pvag    = 1e-020       delta   = 0.01         pscbe1  = 8.14e+008    pscbe2  = 1e-007     
 +fprout  = 0.2          pdits   = 0.08         pditsd  = 0.23         pditsl  = 2.3e+006   
 +rsh     = 5            rdsw    = 155          rsw     = 80           rdw     = 80        
 +rdswmin = 0            rdwmin  = 0            rswmin  = 0            prwg    = 0          
 +prwb    = 0            wr      = 1            alpha0  = 0.074        alpha1  = 0.005      
 +beta0   = 30           agidl   = 0.0002       bgidl   = 2.1e+009     cgidl   = 0.0002     
 +egidl   = 0.8          

 +aigbacc = 0.012        bigbacc = 0.0028       cigbacc = 0.002     
 +nigbacc = 1            aigbinv = 0.014        bigbinv = 0.004        cigbinv = 0.004      
 +eigbinv = 1.1          nigbinv = 3            aigc    = 0.012        bigc    = 0.0028     
 +cigc    = 0.002        aigsd   = 0.012        bigsd   = 0.0028       cigsd   = 0.002     
 +nigc    = 1            poxedge = 1            pigcd   = 1            ntox    = 1          

 +xrcrg1  = 12           xrcrg2  = 5          
 +cgso    = 1.1e-010     cgdo    = 1.1e-010     cgbo    = 2.56e-011    cgdl    = 2.653e-10     
 +cgsl    = 2.653e-10    ckappas = 0.03         ckappad = 0.03         acde    = 1          
 +moin    = 15           noff    = 0.9          voffcv  = 0.02       

 +kt1     = -0.11        kt1l    = 0            kt2     = 0.022        ute     = -1.5       
 +ua1     = 4.31e-009    ub1     = 7.61e-018    uc1     = -5.6e-011    prt     = 0          
 +at      = 33000      

 +fnoimod = 1            tnoimod = 0          

 +jss     = 0.0001       jsws    = 1e-011       jswgs   = 1e-010       njs     = 1          
 +ijthsfwd= 0.01         ijthsrev= 0.001        bvs     = 10           xjbvs   = 1          
 +jsd     = 0.0001       jswd    = 1e-011       jswgd   = 1e-010       njd     = 1          
 +ijthdfwd= 0.01         ijthdrev= 0.001        bvd     = 10           xjbvd   = 1          
 +pbs     = 1            cjs     = 0.0005       mjs     = 0.5          pbsws   = 1          
 +cjsws   = 5e-010       mjsws   = 0.33         pbswgs  = 1            cjswgs  = 3e-010     
 +mjswgs  = 0.33         pbd     = 1            cjd     = 0.0005       mjd     = 0.5        
 +pbswd   = 1            cjswd   = 5e-010       mjswd   = 0.33         pbswgd  = 1          
 +cjswgd  = 5e-010       mjswgd  = 0.33         tpb     = 0.005        tcj     = 0.001      
 +tpbsw   = 0.005        tcjsw   = 0.001        tpbswg  = 0.005        tcjswg  = 0.001      
 +xtis    = 3            xtid    = 3          

 +dmcg    = 0e-006       dmci    = 0e-006       dmdg    = 0e-006       dmcgt   = 0e-007     
 +dwj     = 0.0e-008     xgw     = 0e-007       xgl     = 0e-008     

 +rshg    = 0.4          gbmin   = 1e-010       rbpb    = 5            rbpd    = 15         
 +rbps    = 15           rbdb    = 15           rbsb    = 15           ngcon   = 1          

 * ptm 45nm pmos
  
 .model  pmos  pmos  level = 54

 +version = 4.0          binunit = 1            paramchk= 1            mobmod  = 0          
 +capmod  = 2            igcmod  = 1            igbmod  = 1            geomod  = 1          
 +diomod  = 1            rdsmod  = 0            rbodymod= 1            rgatemod= 1          
 +permod  = 1            acnqsmod= 0            trnqsmod= 0          

 +tnom    = 27           toxe    = 1.85e-009    toxp    = 1.1e-009     toxm    = 1.85e-009   
 +dtox    = 0.75e-9      epsrox  = 3.9          wint    = 5e-009       lint    = 3.75e-009   
 +ll      = 0            wl      = 0            lln     = 1            wln     = 1          
 +lw      = 0            ww      = 0            lwn     = 1            wwn     = 1          
 +lwl     = 0            wwl     = 0            xpart   = 0            toxref  = 1.85e-009   
 +xl      = -20e-9
 +vth0    = -0.4118      k1      = 0.4          k2      = -0.01        k3      = 0          
 +k3b     = 0            w0      = 2.5e-006     dvt0    = 1            dvt1    = 2       
 +dvt2    = -0.032       dvt0w   = 0            dvt1w   = 0            dvt2w   = 0          
 +dsub    = 0.1          minv    = 0.05         voffl   = 0            dvtp0   = 1e-011     
 +dvtp1   = 0.05         lpe0    = 0            lpeb    = 0            xj      = 1.4e-008   
 +ngate   = 2e+020       ndep    = 2.44e+018    nsd     = 2e+020       phin    = 0          
 +cdsc    = 0.000        cdscb   = 0            cdscd   = 0            cit     = 0          
 +voff    = -0.126       nfactor = 2.1          eta0    = 0.0049       etab    = 0          
 +vfb     = 0.55         u0      = 0.00440      ua      = 2.0e-009     ub      = 0.5e-018     
 +uc      = 0            vsat    = 70000        a0      = 1.0          ags     = 1e-020     
 +a1      = 0            a2      = 1            b0      = 0            b1      = 0          
 +keta    = -0.047       dwg     = 0            dwb     = 0            pclm    = 0.12       
 +pdiblc1 = 0.001        pdiblc2 = 0.001        pdiblcb = 3.4e-008     drout   = 0.56       
 +pvag    = 1e-020       delta   = 0.01         pscbe1  = 8.14e+008    pscbe2  = 9.58e-007  
 +fprout  = 0.2          pdits   = 0.08         pditsd  = 0.23         pditsl  = 2.3e+006   
 +rsh     = 5            rdsw    = 155          rsw     = 75           rdw     = 75        
 +rdswmin = 0            rdwmin  = 0            rswmin  = 0            prwg    = 0  
 +prwb    = 0            wr      = 1            alpha0  = 0.074        alpha1  = 0.005      
 +beta0   = 30           agidl   = 0.0002       bgidl   = 2.1e+009     cgidl   = 0.0002     
 +egidl   = 0.8          

 +aigbacc = 0.012        bigbacc = 0.0028       cigbacc = 0.002     
 +nigbacc = 1            aigbinv = 0.014        bigbinv = 0.004        cigbinv = 0.004      
 +eigbinv = 1.1          nigbinv = 3            aigc    = 0.69         bigc    = 0.0012     
 +cigc    = 0.0008       aigsd   = 0.0087       bigsd   = 0.0012       cigsd   = 0.0008     
 +nigc    = 1            poxedge = 1            pigcd   = 1            ntox    = 1 
          
 +xrcrg1  = 12           xrcrg2  = 5          
 +cgso    = 1.1e-010     cgdo    = 1.1e-010     cgbo    = 2.56e-011    cgdl    = 2.653e-10
 +cgsl    = 2.653e-10    ckappas = 0.03         ckappad = 0.03         acde    = 1
 +moin    = 15           noff    = 0.9          voffcv  = 0.02

 +kt1     = -0.11        kt1l    = 0            kt2     = 0.022        ute     = -1.5       
 +ua1     = 4.31e-009    ub1     = 7.61e-018    uc1     = -5.6e-011    prt     = 0          
 +at      = 33000      

 +fnoimod = 1            tnoimod = 0          

 +jss     = 0.0001       jsws    = 1e-011       jswgs   = 1e-010       njs     = 1          
 +ijthsfwd= 0.01         ijthsrev= 0.001        bvs     = 10           xjbvs   = 1          
 +jsd     = 0.0001       jswd    = 1e-011       jswgd   = 1e-010       njd     = 1          
 +ijthdfwd= 0.01         ijthdrev= 0.001        bvd     = 10           xjbvd   = 1          
 +pbs     = 1            cjs     = 0.0005       mjs     = 0.5          pbsws   = 1          
 +cjsws   = 5e-010       mjsws   = 0.33         pbswgs  = 1            cjswgs  = 3e-010     
 +mjswgs  = 0.33         pbd     = 1            cjd     = 0.0005       mjd     = 0.5        
 +pbswd   = 1            cjswd   = 5e-010       mjswd   = 0.33         pbswgd  = 1          
 +cjswgd  = 5e-010       mjswgd  = 0.33         tpb     = 0.005        tcj     = 0.001      
 +tpbsw   = 0.005        tcjsw   = 0.001        tpbswg  = 0.005        tcjswg  = 0.001      
 +xtis    = 3            xtid    = 3          

 +dmcg    = 0e-006       dmci    = 0e-006       dmdg    = 0e-006       dmcgt   = 0e-007     
 +dwj     = 0.0e-008     xgw     = 0e-007       xgl     = 0e-008     

 +rshg    = 0.4          gbmin   = 1e-010       rbpb    = 5            rbpd    = 15         
 +rbps    = 15           rbdb    = 15           rbsb    = 15           ngcon   = 1          




 ****
 .param supply=1v
 .param wmin=45n **2xlanda
 .param lmin=45n **2xlanda
 .param my_cload= 6ff
 ****
 .subckt xorxnor a b vdd xor xnor ind
 mp1 xor b a vdd pmos w='240nm' l='45nm'
 mp2 xor a b vdd pmos w='240nm' l='45nm'
 mn1 xor b ind 0 nmos w='240nm' l='45nm'
 mn2 ind a 0 0 nmos w='240nm' l='45nm'
 mn3 xor ind b 0 nmos w='240nm' l='45nm'
 mp3 ind a vdd vdd pmos w='480nm' l='45nm'
 mp4 xnor b ind vdd pmos w='480nm' l='45nm'
 mp5 xnor ind b vdd pmos w='480nm' l='45nm'
 mn4 xnor a b 0 nmos w='120nm' l='45nm'
 mn5 xnor b a 0 nmos w='120nm' l='45nm'
 .ends xorxnor



 .subckt sumcircuit xor xnor sum cin ci vdd
 mn6 xor ci sum 0 nmos w='120nm' l='45nm'
 mp6 sum cin xor vdd pmos w='240nm' l='45nm'
 mn7 xnor cin sum 0 nmos w='120nm' l='45nm'
 mp7 sum ci xnor vdd pmos w='240nm' l='45nm'
 .ends sumcircuit


 .subckt carrycircuit cin cout ci xor xnor ind vdd b
 mp8 notcout b ind vdd pmos w='240nm' l='45nm'
 mn8 notcout b ind gnd nmos w='120nm' l='45nm'
 mp10 ci cin vdd vdd pmos w='360nm' l='45nm'
 mp9 notcout xnor ci vdd pmos w='360nm' l='45nm'
 mn9 notcout xor ci gnd nmos w='180nm' l='45nm'
 mn10 ci cin gnd gnd nmos w='180nm' l='45nm'
 mp11 cout notcout vdd vdd pmos w='240nm' l='45nm'
 mn11 cout notcout gnd gnd nmos w='120nm' l='45nm'
 .ends carrycircuit

   ** main circuit  *

 x1 a b sup xor xnor ind xorxnor
 x2 xor xnor sum cin ci sup sumcircuit
 x3 cin cout ci xor xnor ind sup b carrycircuit 
 *cload1 and 0 my_cload

   ** define stimuli  *

 vdd sup 0 supply 
 vb b 0 pwl(0ns 0v, 5ns 0v, 5.01ns 1v, 10ns 1v,10.01ns 0v,15ns 0v,15.01ns 1v,20ns 1v,20.01ns 0v,25ns 0v,25.01ns 1v,30ns 1v,30.01ns 0v, 35ns 0v,35.01ns 1v,40ns 1v,40.01ns 0v)
 va a 0 pwl(0ns 0v, 10ns 0v, 10.01ns 1v, 20ns 1v,20.01ns 0v,30ns 0v,30.01ns 1v,40ns 1v,40.01ns 0v)
 vcin cin 0 pwl(0ns 0v,20ns 0v, 20.01ns 1v, 40ns 1v, 40.01ns 0v)

   **  analysis options  *
 .tran 0.01n 40n
 *.dc  vdd 0.3 0.75 0.15
 .measure tran pow avg power from=0ns to=40ns
 .measure tran delay1 trig v(a) val='supply/2' rise=1 targ v(sum) val='supply/2' fall=1
 .measure tran delay2 trig v(a) val='supply/2' fall=1 targ v(sum) val='supply/2' rise=1
 .measure tran delay3 trig v(a) val='supply/2' rise=2 targ v(sum) val='supply/2' fall=2
 .measure tran d1 param='max(delay1,delay2)'
 .measure tran tp1 param='max(d1,delay3)'
 .measure tran delay4 trig v(b) val='supply/2' rise=1 targ v(sum) val='supply/2' fall=1
 .measure tran delay5 trig v(b) val='supply/2' fall=1 targ v(sum) val='supply/2' rise=1
 .measure tran delay6 trig v(b) val='supply/2' rise=2 targ v(sum) val='supply/2' fall=2
 .measure tran d2 param='max(delay4,delay5)'
 .measure tran tp2 param='max(d2,delay6)'
 **.measure tran delay7 trig v(cin) val='supply/2' rise=1 targ v(sum) val='supply/2' fall=1
 **.measure tran delay8 trig v(cin) val='supply/2' fall=1 targ v(sum) val='supply/2' rise=1
 **.measure tran delay9 trig v(cin) val='supply/2' rise=2 targ v(sum) val='supply/2' fall=2
 **.measure tran d3 param='max(delay7,delay8)'
 **.measure tran tp3 param='max(d3,delay9)'
 .measure tran tp param='max(tp1,tp2)'
 **.measure tran tp param='max(tp4,tp3)'
 .measure tran pdp param='tp*pow'

 ***********************************************************************
 ** runlvl is invoked, you can disable it by:
      a) Add option runlvl=0 to your current simulation job.
      b) Copy $installdir/hspice.ini to your HOME directory and
         customize it by adding option runlvl=0, which disables
         it for all of your simulation jobs.
      c) Re-invoke $installdir/bin/config program and unselect the
         option runlvl setting in box 'hspice.ini' which disables
         it for whole group simulation jobs.

 ** runlvl is invoked, some options are ignored or automatically set:
      Options below are automatically set(user setting will overwrite them):
      if runlvl=6,            .option bypass=0
      if runlvl=[1|2|3|4|5],  .option bypass=2

      Options below are ignored, they are replaced by automated algorithms:
        lvltim    dvdt      ft    fast   trtol  absvar  relvar
          relq  chgtol    dvtr    imin    itl3    rmax

 ** runlvl is invoked, actual option value used by HSPICE are:
       runlvl= 3       bypass= 2      mbypass=   2.00   bytol= 100.00u
 ***********************************************************************

1****** HSPICE -- A-2008.03 32-BIT (Feb 26 2008) winnt ******                   
 ******  
 *** hybrid xor-xnor based fa ***                                               
  ******  circuit name directory                                                
 ******  
 circuit number to circuit name directory
   number circuitname                     definition         multiplier
        0 main circuit
        1 x1.                             xorxnor            1.00 
        2 x2.                             sumcircuit         1.00 
        3 x3.                             carrycircuit       1.00 
1****** HSPICE -- A-2008.03 32-BIT (Feb 26 2008) winnt ******                   
 ******  
 *** hybrid xor-xnor based fa ***                                               
  ******  mos   model parameters           tnom=  25.000 temp=  25.000          
 ******  
 
Model Name: nmos  

 BSIM4 Model (Level 54)

    MOBMOD = 0
    BINUNIT = 1
    PARAMCHK = 1
    CAPMOD = 2
    DIOMOD = 1
    RDSMOD = 0
    TRNQSMOD = 0
    ACNQSMOD = 0
    RBODYMOD = 1
    RGATEMOD = 1
    PERMOD = 1
    GEOMOD = 1
    RGEOMOD = 0
    FNOIMOD = 1
    TNOIMOD = 0
    IGCMOD = 1
    IGBMOD = 1
    STIMOD = 0
    VERSION =      4 
    TOXREF = 1.75e-009 
    TOXE = 1.75e-009 
    TOXP = 1.1e-009 
    TOXM = 1.75e-009 
    DTOX = 6.5e-010 
    EPSROX =    3.9 
    CDSC =      0 
    CDSCB =      0 
    CDSCD =      0 
    CIT =      0 
    NFACTOR =    2.1 
    XJ = 1.4e-008 
    VSAT = 1.474e+005 
    A0 =      1 
    AGS =      0 
    A1 =      0 
    A2 =      1 
    AT = 3.3e+004 
    KETA =   0.04 
    NSUB = 6e+016 
    NDEP = 3.24e+018 
    NSD = 2e+020 
    NGATE = 2e+020 
    GAMMA1 =      0 
    GAMMA2 =      0 
    VBX =      0 
    VBM =     -3 
    XT = 1.55e-007 
    K1 =    0.4 
    KT1 =  -0.11 
    KT1L =      0 
    KT2 =  0.022 
    K2 =      0 
    K3 =      0 
    K3B =      0 
    LPE0 =      0 
    LPEB =      0 
    DVTP0 = 1e-010 
    DVTP1 =    0.1 
    W0 = 2.5e-006 
    DVT0 =      1 
    DVT1 =      2 
    DVT2 =      0 
    DVT0W =      0 
    DVT1W =      0 
    DVT2W =      0 
    DROUT =    0.5 
    DSUB =    0.1 
    VTH0 =  0.466 
    EU =   1.67 
    UA = 6e-010 
    UA1 = 4.31e-009 
    UB = 1.2e-018 
    UB1 = 7.61e-018 
    UC =      0 
    UC1 = -5.6e-011 
    U0 = 0.04398 
    UTE =   -1.5 
    VOFF =  -0.13 
    VOFFL =      0 
    MINV =   0.05 
    FPROUT =    0.2 
    PDITS =   0.08 
    PDITSD =   0.23 
    PDITSL = 2.3e+006 
    DELTA =   0.01 
    RDSW =    155 
    RDSWMIN =      0 
    RDWMIN =      0 
    RSWMIN =      0 
    RDW =     80 
    RSW =     80 
    PRWG =      0 
    PRWB =      0 
    PRT =      0 
    ETA0 = 0.0049 
    ETAB =      0 
    PCLM =   0.02 
    PDIBLC1 =  0.001 
    PDIBLC2 =  0.001 
    PDIBLCB = -0.005 
    PSCBE1 = 8.14e+008 
    PSCBE2 = 1e-007 
    PVAG = 1e-020 
    WR =      1 
    DWG =      0 
    DWB =      0 
    XW =      0 
    XWREF =      0 
    XL = -2e-008 
    XLREF = -2e-008 
    B0 =      0 
    B1 =      0 
    ALPHA0 =  0.074 
    ALPHA1 =  0.005 
    AGIDL = 0.0002 
    BGIDL = 2.1e+009 
    CGIDL = 0.0002 
    PHIN =      0 
    EGIDL =    0.8 
    AIGC =  0.012 
    BIGC = 0.0028 
    CIGC =  0.002 
    AIGSD =  0.012 
    BIGSD = 0.0028 
    CIGSD =  0.002 
    AIGBACC =  0.012 
    BIGBACC = 0.0028 
    CIGBACC =  0.002 
    AIGBINV =  0.014 
    BIGBINV =  0.004 
    CIGBINV =  0.004 
    NIGC =      1 
    NIGBINV =      3 
    NIGBACC =      1 
    NTOX =      1 
    EIGBINV =    1.1 
    PIGCD =      1 
    POXEDGE =      1 
    XRCRG1 =     12 
    TNOIA =    1.5 
    TNOIB =    3.5 
    NTNOI =      1 
    XRCRG2 =      5 
    BETA0 =     30 
    IJTHDFWD =   0.01 
    IJTHSFWD =   0.01 
    IJTHDREV =  0.001 
    IJTHSREV =  0.001 
    XJBVD =      1 
    XJBVS =      1 
    BVD =     10 
    BVS =     10 
    VFB =  -0.55 
    GBMIN = 1e-010 
    RBDB =     15 
    RBPB =      5 
    RBSB =     15 
    RBPS =     15 
    RBPD =     15 
    CGSL = 2.653e-010 
    CGDL = 2.653e-010 
    CKAPPAS =   0.03 
    CKAPPAD =   0.03 
    CF = 1.195e-010 
    CLC = 1e-007 
    CLE =    0.6 
    DWC = 5e-009 
    DLC = 3.75e-009 
    DLCIG = 3.75e-009 
    DWJ =      0 
    VFBCV =     -1 
    ACDE =      1 
    MOIN =     15 
    NOFF =    0.9 
    VOFFCV =   0.02 
    DMCG =      0 
    DMCI =      0 
    DMDG =      0 
    DMCGT =      0 
    XGW =      0 
    XGL =      0 
    RSHG =    0.4 
    NGCON =      1 
    TCJ =  0.001 
    TPB =  0.005 
    TCJSW =  0.001 
    TPBSW =  0.005 
    TCJSWG =  0.001 
    TPBSWG =  0.005 
    SK0 =      0 
    SK1 =      0 
    SK2 =      0 
    SL = 2e-006 
    SW = 2e-006 
    K =      0 
    TNOM =  300.1 
    CGSO = 1.1e-010 
    CGDO = 1.1e-010 
    CGBO = 2.56e-011 
    XPART =      0 
    RSH =      5 
    JSS = 0.0001 
    JSWS = 1e-011 
    JSWGS = 1e-010 
    PBS =      1 
    MJS =    0.5 
    PBSWS =      1 
    MJSWS =   0.33 
    CJS = 0.0005 
    CJSWS = 5e-010 
    NJS =      1 
    PBSWGS =      1 
    MJSWGS =   0.33 
    CJSWGS = 3e-010 
    XTIS =      3 
    JSD = 0.0001 
    JSWD = 1e-011 
    JSWGD = 1e-010 
    PBD =      1 
    MJD =    0.5 
    PBSWD =      1 
    MJSWD =   0.33 
    CJD = 0.0005 
    CJSWD = 5e-010 
    NJD =      1 
    PBSWGD =      1 
    MJSWGD =   0.33 
    CJSWGD = 5e-010 
    XTID =      3 
    LMLT =      1 
    WMLT =      1 
    LINT = 3.75e-009 
    LL =      0 
    LLC =      0 
    LLN =      1 
    LW =      0 
    LWC =      0 
    LWN =      1 
    LWL =      0 
    LWLC =      0 
    LMIN =      0 
    LMAX =      1 
    WINT = 5e-009 
    WL =      0 
    WLC =      0 
    WLN =      1 
    WW =      0 
    WWC =      0 
    WWN =      1 
    WWL =      0 
    WWLC =      0 
    WMIN =      0 
    WMAX =      1 
    NOIA = 6.25e+041 
    NOIB = 3.125e+026 
    NOIC = 8.75e+009 
    EM = 4.1e+007 
    EF =      1 
    AF =      1 
    KF =      0 
    TRS =      0 
    TRD =      0 
 

 
Model Name: pmos  

 BSIM4 Model (Level 54)

    MOBMOD = 0
    BINUNIT = 1
    PARAMCHK = 1
    CAPMOD = 2
    DIOMOD = 1
    RDSMOD = 0
    TRNQSMOD = 0
    ACNQSMOD = 0
    RBODYMOD = 1
    RGATEMOD = 1
    PERMOD = 1
    GEOMOD = 1
    RGEOMOD = 0
    FNOIMOD = 1
    TNOIMOD = 0
    IGCMOD = 1
    IGBMOD = 1
    STIMOD = 0
    VERSION =      4 
    TOXREF = 1.85e-009 
    TOXE = 1.85e-009 
    TOXP = 1.1e-009 
    TOXM = 1.85e-009 
    DTOX = 7.5e-010 
    EPSROX =    3.9 
    CDSC =      0 
    CDSCB =      0 
    CDSCD =      0 
    CIT =      0 
    NFACTOR =    2.1 
    XJ = 1.4e-008 
    VSAT = 7e+004 
    A0 =      1 
    AGS = 1e-020 
    A1 =      0 
    A2 =      1 
    AT = 3.3e+004 
    KETA = -0.047 
    NSUB = 6e+016 
    NDEP = 2.44e+018 
    NSD = 2e+020 
    NGATE = 2e+020 
    GAMMA1 =      0 
    GAMMA2 =      0 
    VBX =      0 
    VBM =     -3 
    XT = 1.55e-007 
    K1 =    0.4 
    KT1 =  -0.11 
    KT1L =      0 
    KT2 =  0.022 
    K2 =  -0.01 
    K3 =      0 
    K3B =      0 
    LPE0 =      0 
    LPEB =      0 
    DVTP0 = 1e-011 
    DVTP1 =   0.05 
    W0 = 2.5e-006 
    DVT0 =      1 
    DVT1 =      2 
    DVT2 = -0.032 
    DVT0W =      0 
    DVT1W =      0 
    DVT2W =      0 
    DROUT =   0.56 
    DSUB =    0.1 
    VTH0 = -0.4118 
    EU =      1 
    UA = 2e-009 
    UA1 = 4.31e-009 
    UB = 5e-019 
    UB1 = 7.61e-018 
    UC =      0 
    UC1 = -5.6e-011 
    U0 = 0.0044 
    UTE =   -1.5 
    VOFF = -0.126 
    VOFFL =      0 
    MINV =   0.05 
    FPROUT =    0.2 
    PDITS =   0.08 
    PDITSD =   0.23 
    PDITSL = 2.3e+006 
    DELTA =   0.01 
    RDSW =    155 
    RDSWMIN =      0 
    RDWMIN =      0 
    RSWMIN =      0 
    RDW =     75 
    RSW =     75 
    PRWG =      0 
    PRWB =      0 
    PRT =      0 
    ETA0 = 0.0049 
    ETAB =      0 
    PCLM =   0.12 
    PDIBLC1 =  0.001 
    PDIBLC2 =  0.001 
    PDIBLCB = 3.4e-008 
    PSCBE1 = 8.14e+008 
    PSCBE2 = 9.58e-007 
    PVAG = 1e-020 
    WR =      1 
    DWG =      0 
    DWB =      0 
    XW =      0 
    XWREF =      0 
    XL = -2e-008 
    XLREF = -2e-008 
    B0 =      0 
    B1 =      0 
    ALPHA0 =  0.074 
    ALPHA1 =  0.005 
    AGIDL = 0.0002 
    BGIDL = 2.1e+009 
    CGIDL = 0.0002 
    PHIN =      0 
    EGIDL =    0.8 
    AIGC =   0.69 
    BIGC = 0.0012 
    CIGC = 0.0008 
    AIGSD = 0.0087 
    BIGSD = 0.0012 
    CIGSD = 0.0008 
    AIGBACC =  0.012 
    BIGBACC = 0.0028 
    CIGBACC =  0.002 
    AIGBINV =  0.014 
    BIGBINV =  0.004 
    CIGBINV =  0.004 
    NIGC =      1 
    NIGBINV =      3 
    NIGBACC =      1 
    NTOX =      1 
    EIGBINV =    1.1 
    PIGCD =      1 
    POXEDGE =      1 
    XRCRG1 =     12 
    TNOIA =    1.5 
    TNOIB =    3.5 
    NTNOI =      1 
    XRCRG2 =      5 
    BETA0 =     30 
    IJTHDFWD =   0.01 
    IJTHSFWD =   0.01 
    IJTHDREV =  0.001 
    IJTHSREV =  0.001 
    XJBVD =      1 
    XJBVS =      1 
    BVD =     10 
    BVS =     10 
    VFB =   0.55 
    GBMIN = 1e-010 
    RBDB =     15 
    RBPB =      5 
    RBSB =     15 
    RBPS =     15 
    RBPD =     15 
    CGSL = 2.653e-010 
    CGDL = 2.653e-010 
    CKAPPAS =   0.03 
    CKAPPAD =   0.03 
    CF = 1.183e-010 
    CLC = 1e-007 
    CLE =    0.6 
    DWC = 5e-009 
    DLC = 3.75e-009 
    DLCIG = 3.75e-009 
    DWJ =      0 
    VFBCV =     -1 
    ACDE =      1 
    MOIN =     15 
    NOFF =    0.9 
    VOFFCV =   0.02 
    DMCG =      0 
    DMCI =      0 
    DMDG =      0 
    DMCGT =      0 
    XGW =      0 
    XGL =      0 
    RSHG =    0.4 
    NGCON =      1 
    TCJ =  0.001 
    TPB =  0.005 
    TCJSW =  0.001 
    TPBSW =  0.005 
    TCJSWG =  0.001 
    TPBSWG =  0.005 
    SK0 =      0 
    SK1 =      0 
    SK2 =      0 
    SL = 2e-006 
    SW = 2e-006 
    K =      0 
    TNOM =  300.1 
    CGSO = 1.1e-010 
    CGDO = 1.1e-010 
    CGBO = 2.56e-011 
    XPART =      0 
    RSH =      5 
    JSS = 0.0001 
    JSWS = 1e-011 
    JSWGS = 1e-010 
    PBS =      1 
    MJS =    0.5 
    PBSWS =      1 
    MJSWS =   0.33 
    CJS = 0.0005 
    CJSWS = 5e-010 
    NJS =      1 
    PBSWGS =      1 
    MJSWGS =   0.33 
    CJSWGS = 3e-010 
    XTIS =      3 
    JSD = 0.0001 
    JSWD = 1e-011 
    JSWGD = 1e-010 
    PBD =      1 
    MJD =    0.5 
    PBSWD =      1 
    MJSWD =   0.33 
    CJD = 0.0005 
    CJSWD = 5e-010 
    NJD =      1 
    PBSWGD =      1 
    MJSWGD =   0.33 
    CJSWGD = 5e-010 
    XTID =      3 
    LMLT =      1 
    WMLT =      1 
    LINT = 3.75e-009 
    LL =      0 
    LLC =      0 
    LLN =      1 
    LW =      0 
    LWC =      0 
    LWN =      1 
    LWL =      0 
    LWLC =      0 
    LMIN =      0 
    LMAX =      1 
    WINT = 5e-009 
    WL =      0 
    WLC =      0 
    WLN =      1 
    WW =      0 
    WWC =      0 
    WWN =      1 
    WWL =      0 
    WWLC =      0 
    WMIN =      0 
    WMAX =      1 
    NOIA = 6.188e+040 
    NOIB = 1.5e+025 
    NOIC = 8.75e+009 
    EM = 4.1e+007 
    EF =      1 
    AF =      1 
    KF =      0 
    TRS =      0 
    TRD =      0 
 


 **warning** dc voltage reset to initial transient source value
             in source        0:vb                  new dc=  0.0000D+00


 **warning** dc voltage reset to initial transient source value
             in source        0:va                  new dc=  0.0000D+00


 **warning** dc voltage reset to initial transient source value
             in source        0:vcin                new dc=  0.0000D+00

 Warning:  Acde = 1 may be too small in BSIM4 model nmos with w=2.4e-007 l=4.5e-008.

 Warning:  Acde = 1 may be too small in BSIM4 model nmos with w=2.4e-007 l=4.5e-008.

 Warning:  Acde = 1 may be too small in BSIM4 model nmos with w=2.4e-007 l=4.5e-008.

 Warning:  Acde = 1 may be too small in BSIM4 model nmos with w=1.2e-007 l=4.5e-008.

 Warning:  Acde = 1 may be too small in BSIM4 model nmos with w=1.2e-007 l=4.5e-008.

 Warning:  Acde = 1 may be too small in BSIM4 model nmos with w=1.2e-007 l=4.5e-008.

 Warning:  Acde = 1 may be too small in BSIM4 model nmos with w=1.2e-007 l=4.5e-008.

 Warning:  Acde = 1 may be too small in BSIM4 model nmos with w=1.2e-007 l=4.5e-008.

 Warning:  Acde = 1 may be too small in BSIM4 model nmos with w=1.8e-007 l=4.5e-008.

 Warning:  Acde = 1 may be too small in BSIM4 model nmos with w=1.8e-007 l=4.5e-008.

 Warning:  Acde = 1 may be too small in BSIM4 model nmos with w=1.2e-007 l=4.5e-008.

 Warning:  Acde = 1 may be too small in BSIM4 model pmos with w=2.4e-007 l=4.5e-008.

 Warning:  Acde = 1 may be too small in BSIM4 model pmos with w=2.4e-007 l=4.5e-008.

 Warning:  Acde = 1 may be too small in BSIM4 model pmos with w=4.8e-007 l=4.5e-008.

 Warning:  Acde = 1 may be too small in BSIM4 model pmos with w=4.8e-007 l=4.5e-008.

 Warning:  Acde = 1 may be too small in BSIM4 model pmos with w=4.8e-007 l=4.5e-008.

 Warning:  Acde = 1 may be too small in BSIM4 model pmos with w=2.4e-007 l=4.5e-008.

 Warning:  Acde = 1 may be too small in BSIM4 model pmos with w=2.4e-007 l=4.5e-008.

 Warning:  Acde = 1 may be too small in BSIM4 model pmos with w=2.4e-007 l=4.5e-008.

 Warning:  Acde = 1 may be too small in BSIM4 model pmos with w=3.6e-007 l=4.5e-008.

 Warning:  Acde = 1 may be too small in BSIM4 model pmos with w=3.6e-007 l=4.5e-008.

 Warning:  Acde = 1 may be too small in BSIM4 model pmos with w=2.4e-007 l=4.5e-008.

 
      
  Opening plot unit= 79
 file=c:\users\shayan\desktop\uni stuff\8\digital elec\vol project\code.pa0    


 **diagnostic** dc convergence failure, 
 resetting dcon option to 1 and retrying

 **diagnostic** dc convergence successful
 you can increase the efficiency of the
 operating point calculation by setting dcon= 1
 in the .option statement
1****** HSPICE -- A-2008.03 32-BIT (Feb 26 2008) winnt ******                   
 ******  
 *** hybrid xor-xnor based fa ***                                               
  ******  operating point information      tnom=  25.000 temp=  25.000          
 ******  
 ***** operating point status is voltage   simulation time is     0.     
    node    =voltage      node    =voltage      node    =voltage

 +0:a       =   0.      0:b       =   0.      0:ci      = 999.9506m
 +0:cin     =   0.      0:cout    =  32.0891u 0:ind     = 999.7485m
 +0:sum     = 105.0798u 0:sup     =   1.0000  0:xnor    = 999.5972m
 +0:xor     =  51.9127u 3:notcout = 999.7393m

 ******  
 *** hybrid xor-xnor based fa ***                                               
  ******  transient analysis               tnom=  25.000 temp=  25.000          
 ******  
   pow=  1.5488E-05  from=  0.0000E+00     to=  4.0000E-08
   delay1=  5.0149E-09  targ=  1.5020E-08   trig=  1.0005E-08
   delay2= -1.4992E-08  targ=  5.0132E-09   trig=  2.0005E-08
   delay3= -4.9841E-09  targ=  2.5021E-08   trig=  3.0005E-08
   d1=  5.0149E-09
   tp1=  5.0149E-09
   delay4=  1.0015E-08  targ=  1.5020E-08   trig=  5.0050E-09
   delay5= -4.9918E-09  targ=  5.0132E-09   trig=  1.0005E-08
   delay6=  1.0016E-08  targ=  2.5021E-08   trig=  1.5005E-08
   d2=  1.0015E-08
   tp2=  1.0016E-08
   tp=  1.0016E-08
   pdp=  1.5513E-13

          ***** job concluded
1****** HSPICE -- A-2008.03 32-BIT (Feb 26 2008) winnt ******                   
 ******  
 *** hybrid xor-xnor based fa ***                                               
  ******  job statistics summary           tnom=  25.000 temp=  25.000          
 ******  

           total memory used        365 kbytes

  # nodes =     100 # elements=      26
  # diodes=       0 # bjts    =       0 # jfets   =       0 # mosfets =      22
  # va device =       0

    analysis           time    # points   tot. iter  conv.iter

    op point           0.02           1         203
    transient          0.10        4001         492         187 rev=        12
    readin             0.01
    errchk             0.01
    setup              0.01
    output             0.00
           total cpu time          0.16 seconds
           total elapsed time         1 seconds
               job started at  09:38:18 06/25/2018
               job ended   at  09:38:19 06/25/2018


 Init: hspice initialization file: D:\synopsys\Hspice_A-2008.03\hspice.ini
